Version 4
SHEET 1 880 680
TEXT 296 64 Left 2 ;NTX EEG DAQ Pipeline - NT@B
