Version 4
SHEET 1 880 680
TEXT 280 32 Left 2 ;Myo-Mirror EMG DAQ Pipeline
